!- Windows Line endings 

Version,
    23.2;                     !- Version Identifier

SimulationControl,
    Yes,                      !- Do Zone Sizing Calculation
    Yes,                      !- Do System Sizing Calculation
    Yes,                      !- Do Plant Sizing Calculation
    No,                       !- Run Simulation for Sizing Periods
    Yes,                      !- Run Simulation for Weather File Run Periods
    No,                       !- Do HVAC Sizing Simulation for Sizing Periods
    ;                         !- Maximum Number of HVAC Sizing Simulation Passes

BUILDING,
    Sample_Building_0,        !- Name
    47.56956671,              !- North Axis
    Suburbs,                  !- Terrain
    0.04,                     !- Loads Convergence Tolerance Value
    0.4,                      !- Temperature Convergence Tolerance Value
    FullExterior,             !- Solar Distribution
    25,                       !- Maximum Number of Warmup Days
    1;                        !- Minimum Number of Warmup Days

Timestep,
    4;                        !- Number of Timesteps per Hour

Site:Location,
    Amsterdam_Netherlands,    !- Name
    52.37,                    !- Latitude
    4.89,                     !- Longitude
    1,                        !- Time Zone
    -2;                       !- Elevation

SizingPeriod:DesignDay,
    Netherlands Ann Htg 99.6% Condns DB,    !- Name
    1,                        !- Month
    21,                       !- Day of Month
    WinterDesignDay,          !- Day Type
    -5,                       !- Maximum DryBulb Temperature
    0,                        !- Daily DryBulb Temperature Range
    ,                         !- DryBulb Temperature Range Modifier Type
    ,                         !- DryBulb Temperature Range Modifier Day Schedule Name
    Wetbulb,                  !- Humidity Condition Type
    -5,                       !- Wetbulb or DewPoint at Maximum DryBulb
    ,                         !- Humidity Condition Day Schedule Name
    ,                         !- Humidity Ratio at Maximum DryBulb
    ,                         !- Enthalpy at Maximum DryBulb
    ,                         !- Daily WetBulb Temperature Range
    102000,                   !- Barometric Pressure
    4,                        !- Wind Speed
    270,                      !- Wind Direction
    No,                       !- Rain Indicator
    No,                       !- Snow Indicator
    No,                       !- Daylight Saving Time Indicator
    ASHRAEClearSky,           !- Solar Model Indicator
    ,                         !- Beam Solar Day Schedule Name
    ,                         !- Diffuse Solar Day Schedule Name
    ,                         !- ASHRAE Clear Sky Optical Depth for Beam Irradiance taub
    ,                         !- ASHRAE Clear Sky Optical Depth for Diffuse Irradiance taud
    0;                        !- Sky Clearness

SizingPeriod:DesignDay,
    Netherlands Ann Clg 1% Condns DB=>MWB,    !- Name
    7,                        !- Month
    21,                       !- Day of Month
    SummerDesignDay,          !- Day Type
    28,                       !- Maximum DryBulb Temperature
    10,                       !- Daily DryBulb Temperature Range
    ,                         !- DryBulb Temperature Range Modifier Type
    ,                         !- DryBulb Temperature Range Modifier Day Schedule Name
    Wetbulb,                  !- Humidity Condition Type
    17,                       !- Wetbulb or DewPoint at Maximum DryBulb
    ,                         !- Humidity Condition Day Schedule Name
    ,                         !- Humidity Ratio at Maximum DryBulb
    ,                         !- Enthalpy at Maximum DryBulb
    ,                         !- Daily WetBulb Temperature Range
    102000,                   !- Barometric Pressure
    3.5,                      !- Wind Speed
    90,                       !- Wind Direction
    No,                       !- Rain Indicator
    No,                       !- Snow Indicator
    No,                       !- Daylight Saving Time Indicator
    ASHRAEClearSky,           !- Solar Model Indicator
    ,                         !- Beam Solar Day Schedule Name
    ,                         !- Diffuse Solar Day Schedule Name
    ,                         !- ASHRAE Clear Sky Optical Depth for Beam Irradiance taub
    ,                         !- ASHRAE Clear Sky Optical Depth for Diffuse Irradiance taud
    1;                        !- Sky Clearness

RunPeriod,
    Run Period 1,             !- Name
    1,                        !- Begin Month
    1,                        !- Begin Day of Month
    ,                         !- Begin Year
    12,                       !- End Month
    31,                       !- End Day of Month
    ,                         !- End Year
    Tuesday,                  !- Day of Week for Start Day
    Yes,                      !- Use Weather File Holidays and Special Days
    Yes,                      !- Use Weather File Daylight Saving Period
    No,                       !- Apply Weekend Holiday Rule
    Yes,                      !- Use Weather File Rain Indicators
    Yes;                      !- Use Weather File Snow Indicators

SITE:GROUNDTEMPERATURE:BUILDINGSURFACE,
    2.6394267984578836,       !- January Ground Temperature
    3.5375161328340003,       !- February Ground Temperature
    4.550058636738239,        !- March Ground Temperature
    7.558026845372057,        !- April Ground Temperature
    14.472942428328025,       !- May Ground Temperature
    16.176699487422912,       !- June Ground Temperature
    18.78435913540969,        !- July Ground Temperature
    17.673877665258832,       !- August Ground Temperature
    14.84384363937054,        !- September Ground Temperature
    9.059594438876141,        !- October Ground Temperature
    6.65591392441081,         !- November Ground Temperature
    4.0107105762067246;       !- December Ground Temperature

SCHEDULETYPELIMITS,
    Temperature,              !- Name
    -100,                     !- Lower Limit Value
    200,                      !- Upper Limit Value
    CONTINUOUS,               !- Numeric Type
    Dimensionless;            !- Unit Type

SCHEDULETYPELIMITS,
    ControlType,              !- Name
    0,                        !- Lower Limit Value
    4,                        !- Upper Limit Value
    DISCRETE,                 !- Numeric Type
    Dimensionless;            !- Unit Type

Schedule:Compact,
    ALWAYS22C,                !- Name
    Temperature,              !- Schedule Type Limits Name
    Through: 12/31,           !- Field 1
    For: AllDays,             !- Field 2
    Until: 24:00,             !- Field 3
    22.0;                     !- Field 4

SCHEDULE:COMPACT,
    LightsSchedule,           !- Name
    Fraction,                 !- Schedule Type Limits Name
    Through: 12/31,           !- Field 1
    For: WeekDays,            !- Field 2
    Until: 24:00,             !- Field 3
    0.50,                     !- Field 4
    For: Saturday,            !- Field 5
    Until: 24:00,             !- Field 6
    0.50,                     !- Field 7
    For: Sunday,              !- Field 8
    Until: 24:00,             !- Field 9
    0.50;                     !- Field 10

SCHEDULE:COMPACT,
    ParasiticSchedule,        !- Name
    Fraction,                 !- Schedule Type Limits Name
    Through: 12/31,           !- Field 1
    For: AllDays,             !- Field 2
    Until: 24:00,             !- Field 3
    1.0;                      !- Field 4

SCHEDULE:COMPACT,
    MyDHW_0_UseFraction,      !- Name
    Fraction,                 !- Schedule Type Limits Name
    Through: 12/31,           !- Field 1
    For: AllDays,             !- Field 2
    Until: 06:00,             !- Field 3
    0.0,                      !- Field 4
    Until: 08:00,             !- Field 5
    0.62,                     !- Field 6
    Until: 10:00,             !- Field 7
    0.98,                     !- Field 8
    Until: 17:00,             !- Field 9
    0.20,                     !- Field 10
    Until: 21:00,             !- Field 11
    0.69,                     !- Field 12
    Until: 24:00,             !- Field 13
    0.62;                     !- Field 14

SCHEDULE:COMPACT,
    MyDHW_0_Setpoint,         !- Name
    Temperature,              !- Schedule Type Limits Name
    Through: 12/31,           !- Field 1
    For: AllDays,             !- Field 2
    Until: 24:00,             !- Field 3
    59.472942428328025;       !- Field 4

SCHEDULE:COMPACT,
    ZONE CONTROL TYPE SCHEDULE,    !- Name
    ControlType,              !- Schedule Type Limits Name
    Through: 12/31,           !- Field 1
    For: AllDays,             !- Field 2
    Until: 24:00,             !- Field 3
    4;                        !- Field 4

SCHEDULE:COMPACT,
    ZONE HEATING SETPOINTS,    !- Name
    Temperature,              !- Schedule Type Limits Name
    Through: 12/31,           !- Field 1
    For: AllDays,             !- Field 2
    Until: 07:00,             !- Field 3
    16.00,                    !- Field 4
    Until: 19:00,             !- Field 5
    10.64,                    !- Field 6
    Until: 24:00,             !- Field 7
    16.00;                    !- Field 8

SCHEDULE:COMPACT,
    ZONE COOLING SETPOINTS,    !- Name
    Temperature,              !- Schedule Type Limits Name
    Through: 12/31,           !- Field 1
    For: AllDays,             !- Field 2
    Until: 07:00,             !- Field 3
    26.22,                    !- Field 4
    Until: 19:00,             !- Field 5
    25.60,                    !- Field 6
    Until: 24:00,             !- Field 7
    26.22;                    !- Field 8

SCHEDULE:COMPACT,
    VentSched_DayNight,       !- Name
    Fraction,                 !- Schedule Type Limits Name
    Through: 12/31,           !- Field 1
    For: AllDays,             !- Field 2
    Until: 06:00,             !- Field 3
    0.5,                      !- Field 4
    Until: 22:00,             !- Field 5
    1.0,                      !- Field 6
    Until: 24:00,             !- Field 7
    0.5;                      !- Field 8

SCHEDULE:COMPACT,
    WorkHoursSched,           !- Name
    Fraction,                 !- Schedule Type Limits Name
    Through: 12/31,           !- Field 1
    For: Weekdays,            !- Field 2
    Until: 09:00,             !- Field 3
    0.2,                      !- Field 4
    Until: 17:00,             !- Field 5
    1.0,                      !- Field 6
    Until: 24:00,             !- Field 7
    0.2,                      !- Field 8
    For: Saturday Sunday Holiday,    !- Field 9
    Until: 24:00,             !- Field 10
    0.2;                      !- Field 11

SCHEDULE:COMPACT,
    Scenario_4_UseFraction,    !- Name
    Fraction,                 !- Schedule Type Limits Name
    Through: 12/31,           !- Field 1
    For: AllDays,             !- Field 2
    Until: 06:00, 0.0,        !- Field 3
    Until: 08:00,0.62,        !- Field 4
    Until: 10:00,0.96,        !- Field 5
    Until: 17:00,0.26,        !- Field 6
    Until: 21:00,0.75,        !- Field 7
    Until: 24:00,0.62;        !- Field 8

SCHEDULE:COMPACT,
    Scenario_4_Setpoint,      !- Name
    Temperature,              !- Schedule Type Limits Name
    Through: 12/31,           !- Field 1
    For: AllDays,             !- Field 2
    Until: 24:00,58.58;       !- Field 3

SCHEDULE:CONSTANT,
    AlwaysOnSched,            !- Name
    Fraction,                 !- Schedule Type Limits Name
    1;                        !- Hourly Value

MATERIAL,
    ground_floor_OpaqueMat,    !- Name
    MediumRough,              !- Roughness
    0.1864114,                !- Thickness
    0.0745645600661519,       !- Conductivity
    621.8637974803603,        !- Density
    2301.0710576206725,       !- Specific Heat
    0.9,                      !- Thermal Absorptance
    0.7,                      !- Solar Absorptance
    0.7;                      !- Visible Absorptance

MATERIAL,
    exterior_wall_OpaqueMat,    !- Name
    MediumSmooth,             !- Roughness
    0.120195,                 !- Thickness
    0.04807799,               !- Conductivity
    1939.6278789976454,       !- Density
    834.0250516517992,        !- Specific Heat
    0.9,                      !- Thermal Absorptance
    0.7,                      !- Solar Absorptance
    0.7;                      !- Visible Absorptance

MATERIAL,
    flat_roof_OpaqueMat,      !- Name
    MediumSmooth,             !- Roughness
    0.140356413663719,        !- Thickness
    0.05614257,               !- Conductivity
    807.2456182909401,        !- Density
    994.6231527958741,        !- Specific Heat
    0.9,                      !- Thermal Absorptance
    0.7,                      !- Solar Absorptance
    0.7;                      !- Visible Absorptance

MATERIAL,
    inter_floor_OpaqueMat,    !- Name
    MediumRough,              !- Roughness
    0.1450407,                !- Thickness
    0.07252034,               !- Conductivity
    628.9387963602107,        !- Density
    2215.9583953847255,       !- Specific Heat
    0.9,                      !- Thermal Absorptance
    0.7,                      !- Solar Absorptance
    0.7;                      !- Visible Absorptance

MATERIAL,
    interior_wall_OpaqueMat,    !- Name
    MediumRough,              !- Roughness
    0.1976698,                !- Thickness
    0.1317798521469941,       !- Conductivity
    2314.8035385246594,       !- Density
    910.9131005666989,        !- Specific Heat
    0.9,                      !- Thermal Absorptance
    0.7,                      !- Solar Absorptance
    0.7;                      !- Visible Absorptance

MATERIAL,
    Concrete_200mm,           !- Name
    MediumRough,              !- Roughness
    1.971638e-01,             !- Thickness
    1.5968397174425417,       !- Conductivity
    2322.458500109305,        !- Density
    947.6607022883056,        !- Specific Heat
    0.9,                      !- Thermal Absorptance
    0.7,                      !- Solar Absorptance
    0.7;                      !- Visible Absorptance

MATERIAL,
    DoorPanel_Range,          !- Name
    MediumRough,              !- Roughness
    1.643756e-01,             !- Thickness
    1.6075361465885605,       !- Conductivity
    630.6206030130088,        !- Density
    2316.3111170664733,       !- Specific Heat
    0.9,                      !- Thermal Absorptance
    0.7,                      !- Solar Absorptance
    0.7;                      !- Visible Absorptance

MATERIAL,
    InteriorWall_Generic,     !- Name
    MediumSmooth,             !- Roughness
    0.1090919928578846,       !- Thickness
    0.4424239700359478,       !- Conductivity
    859.5664713656192,        !- Density
    868.0677686328568,        !- Specific Heat
    0.9,                      !- Thermal Absorptance
    0.7,                      !- Solar Absorptance
    0.7;                      !- Visible Absorptance

MATERIAL,
    InternalFloor_Generic,    !- Name
    MediumSmooth,             !- Roughness
    1.489642e-01,             !- Thickness
    0.8350411981937004,       !- Conductivity
    1961.6398437613511,       !- Density
    853.8172906448256,        !- Specific Heat
    0.9,                      !- Thermal Absorptance
    0.7,                      !- Solar Absorptance
    0.7;                      !- Visible Absorptance

MATERIAL:NOMASS,
    Insulated_Roof_R5,        !- Name
    MediumRough,              !- Roughness
    4.562839597084564,        !- Thermal Resistance
    0.9,                      !- Thermal Absorptance
    0.7,                      !- Solar Absorptance
    0.7;                      !- Visible Absorptance

MATERIAL:NOMASS,
    windows_OpaqueMat,        !- Name
    MediumRough,              !- Roughness
    0.3448275862068966,       !- Thermal Resistance
    0.9,                      !- Thermal Absorptance
    0.7,                      !- Solar Absorptance
    0.7;                      !- Visible Absorptance

MATERIAL:NOMASS,
    doors_OpaqueMat,          !- Name
    MediumRough,              !- Roughness
    0.2941176,                !- Thermal Resistance
    0.9,                      !- Thermal Absorptance
    0.7,                      !- Solar Absorptance
    0.7;                      !- Visible Absorptance

WINDOWMATERIAL:GLAZING,
    Glazing_Clear_3mm,        !- Name
    SpectralAverage,          !- Optical Data Type
    ,                         !- Window Glass Spectral Data Set Name
    0.003,                    !- Thickness
    0.7721263530248593,       !- Solar Transmittance at Normal Incidence
    7.790741e-02,             !- Front Side Solar Reflectance at Normal Incidence
    7.225687e-02,             !- Back Side Solar Reflectance at Normal Incidence
    0.8704514507026043,       !- Visible Transmittance at Normal Incidence
    6.450514e-02,             !- Front Side Visible Reflectance at Normal Incidence
    6.442721e-02,             !- Back Side Visible Reflectance at Normal Incidence
    0,                        !- Infrared Transmittance at Normal Incidence
    0.84,                     !- Front Side Infrared Hemispherical Emissivity
    0.84,                     !- Back Side Infrared Hemispherical Emissivity
    0.980538024431936,        !- Conductivity
    1,                        !- Dirt Correction Factor for Solar and Visible Transmittance
    No,                       !- Solar Diffusing
    72000000000,              !- Youngs modulus
    0.22;                     !- Poissons ratio

WINDOWMATERIAL:GLAZING,
    ground_floor_WindowMat,    !- Name
    SpectralAverage,          !- Optical Data Type
    ,                         !- Window Glass Spectral Data Set Name
    0.003,                    !- Thickness
    0.7605307193936773,       !- Solar Transmittance at Normal Incidence
    0.07198838,               !- Front Side Solar Reflectance at Normal Incidence
    0.07649884,               !- Back Side Solar Reflectance at Normal Incidence
    0.8708988296120643,       !- Visible Transmittance at Normal Incidence
    0.06220441,               !- Front Side Visible Reflectance at Normal Incidence
    0.06589266,               !- Back Side Visible Reflectance at Normal Incidence
    0,                        !- Infrared Transmittance at Normal Incidence
    0.84,                     !- Front Side Infrared Hemispherical Emissivity
    0.84,                     !- Back Side Infrared Hemispherical Emissivity
    0.00108,                  !- Conductivity
    1,                        !- Dirt Correction Factor for Solar and Visible Transmittance
    No,                       !- Solar Diffusing
    72000000000,              !- Youngs modulus
    0.22;                     !- Poissons ratio

WINDOWMATERIAL:GLAZING,
    exterior_wall_WindowMat,    !- Name
    SpectralAverage,          !- Optical Data Type
    ,                         !- Window Glass Spectral Data Set Name
    0.003,                    !- Thickness
    0.7631095899962357,       !- Solar Transmittance at Normal Incidence
    0.07957213,               !- Front Side Solar Reflectance at Normal Incidence
    0.07336595,               !- Back Side Solar Reflectance at Normal Incidence
    0.861854916867603,        !- Visible Transmittance at Normal Incidence
    0.06096716,               !- Front Side Visible Reflectance at Normal Incidence
    0.0684749436634746,       !- Back Side Visible Reflectance at Normal Incidence
    0,                        !- Infrared Transmittance at Normal Incidence
    0.84,                     !- Front Side Infrared Hemispherical Emissivity
    0.84,                     !- Back Side Infrared Hemispherical Emissivity
    0.00111,                  !- Conductivity
    1,                        !- Dirt Correction Factor for Solar and Visible Transmittance
    No,                       !- Solar Diffusing
    72000000000,              !- Youngs modulus
    0.22;                     !- Poissons ratio

WINDOWMATERIAL:GLAZING,
    flat_roof_WindowMat,      !- Name
    SpectralAverage,          !- Optical Data Type
    ,                         !- Window Glass Spectral Data Set Name
    0.003,                    !- Thickness
    0.7675706875441671,       !- Solar Transmittance at Normal Incidence
    0.07552041,               !- Front Side Solar Reflectance at Normal Incidence
    0.07829405,               !- Back Side Solar Reflectance at Normal Incidence
    0.872370395047285,        !- Visible Transmittance at Normal Incidence
    0.06861707,               !- Front Side Visible Reflectance at Normal Incidence
    0.06577352,               !- Back Side Visible Reflectance at Normal Incidence
    0,                        !- Infrared Transmittance at Normal Incidence
    0.84,                     !- Front Side Infrared Hemispherical Emissivity
    0.84,                     !- Back Side Infrared Hemispherical Emissivity
    0.00111,                  !- Conductivity
    1,                        !- Dirt Correction Factor for Solar and Visible Transmittance
    No,                       !- Solar Diffusing
    72000000000,              !- Youngs modulus
    0.22;                     !- Poissons ratio

WINDOWMATERIAL:GLAZING,
    inter_floor_WindowMat,    !- Name
    SpectralAverage,          !- Optical Data Type
    ,                         !- Window Glass Spectral Data Set Name
    0.003,                    !- Thickness
    0.7646558177272206,       !- Solar Transmittance at Normal Incidence
    0.0710100142940973,       !- Front Side Solar Reflectance at Normal Incidence
    0.07277974,               !- Back Side Solar Reflectance at Normal Incidence
    0.872713688885288,        !- Visible Transmittance at Normal Incidence
    0.06364832,               !- Front Side Visible Reflectance at Normal Incidence
    0.06370181,               !- Back Side Visible Reflectance at Normal Incidence
    0,                        !- Infrared Transmittance at Normal Incidence
    0.84,                     !- Front Side Infrared Hemispherical Emissivity
    0.84,                     !- Back Side Infrared Hemispherical Emissivity
    0.0015,                   !- Conductivity
    1,                        !- Dirt Correction Factor for Solar and Visible Transmittance
    No,                       !- Solar Diffusing
    72000000000,              !- Youngs modulus
    0.22;                     !- Poissons ratio

WINDOWMATERIAL:GLAZING,
    interior_wall_WindowMat,    !- Name
    SpectralAverage,          !- Optical Data Type
    ,                         !- Window Glass Spectral Data Set Name
    0.003,                    !- Thickness
    0.763422772963962,        !- Solar Transmittance at Normal Incidence
    0.07729127,               !- Front Side Solar Reflectance at Normal Incidence
    0.07163402,               !- Back Side Solar Reflectance at Normal Incidence
    0.867589108835153,        !- Visible Transmittance at Normal Incidence
    0.06989523,               !- Front Side Visible Reflectance at Normal Incidence
    0.0664,                   !- Back Side Visible Reflectance at Normal Incidence
    0,                        !- Infrared Transmittance at Normal Incidence
    0.84,                     !- Front Side Infrared Hemispherical Emissivity
    0.84,                     !- Back Side Infrared Hemispherical Emissivity
    0.00201,                  !- Conductivity
    1,                        !- Dirt Correction Factor for Solar and Visible Transmittance
    No,                       !- Solar Diffusing
    72000000000,              !- Youngs modulus
    0.22;                     !- Poissons ratio

WINDOWMATERIAL:GLAZING,
    windows_WindowMat,        !- Name
    SpectralAverage,          !- Optical Data Type
    ,                         !- Window Glass Spectral Data Set Name
    0.003,                    !- Thickness
    0.7768570384037962,       !- Solar Transmittance at Normal Incidence
    0.07776,                  !- Front Side Solar Reflectance at Normal Incidence
    0.07229048,               !- Back Side Solar Reflectance at Normal Incidence
    0.8606420048780807,       !- Visible Transmittance at Normal Incidence
    0.06315453,               !- Front Side Visible Reflectance at Normal Incidence
    0.06267741,               !- Back Side Visible Reflectance at Normal Incidence
    0,                        !- Infrared Transmittance at Normal Incidence
    0.84,                     !- Front Side Infrared Hemispherical Emissivity
    0.84,                     !- Back Side Infrared Hemispherical Emissivity
    0.0087,                   !- Conductivity
    1,                        !- Dirt Correction Factor for Solar and Visible Transmittance
    No,                       !- Solar Diffusing
    72000000000,              !- Youngs modulus
    0.22;                     !- Poissons ratio

WINDOWMATERIAL:GLAZING,
    doors_WindowMat,          !- Name
    SpectralAverage,          !- Optical Data Type
    ,                         !- Window Glass Spectral Data Set Name
    0.003,                    !- Thickness
    0.7775273525294534,       !- Solar Transmittance at Normal Incidence
    0.07314678,               !- Front Side Solar Reflectance at Normal Incidence
    0.07655439,               !- Back Side Solar Reflectance at Normal Incidence
    0.8679126380212133,       !- Visible Transmittance at Normal Incidence
    0.06914548,               !- Front Side Visible Reflectance at Normal Incidence
    0.064588518525874,        !- Back Side Visible Reflectance at Normal Incidence
    0,                        !- Infrared Transmittance at Normal Incidence
    0.84,                     !- Front Side Infrared Hemispherical Emissivity
    0.84,                     !- Back Side Infrared Hemispherical Emissivity
    0.0102,                   !- Conductivity
    1,                        !- Dirt Correction Factor for Solar and Visible Transmittance
    No,                       !- Solar Diffusing
    72000000000,              !- Youngs modulus
    0.22;                     !- Poissons ratio

CONSTRUCTION,
    CEILING1C,                !- Name
    Insulated_Roof_R5;        !- Outside Layer

CONSTRUCTION,
    Ext_Walls1C,              !- Name
    Insulated_Roof_R5;        !- Outside Layer

CONSTRUCTION,
    Int_Walls1C,              !- Name
    Insulated_Roof_R5;        !- Outside Layer

CONSTRUCTION,
    Roof1C,                   !- Name
    Insulated_Roof_R5;        !- Outside Layer

CONSTRUCTION,
    GroundFloor1C,            !- Name
    Insulated_Roof_R5;        !- Outside Layer

CONSTRUCTION,
    IntFloor1C,               !- Name
    Insulated_Roof_R5;        !- Outside Layer

CONSTRUCTION,
    WINDOW1C,                 !- Name
    Glazing_Clear_3mm;        !- Outside Layer

CONSTRUCTION,
    ground_floor_Construction,    !- Name
    ground_floor_OpaqueMat;    !- Outside Layer

CONSTRUCTION,
    ground_floor_WindowConst,    !- Name
    ground_floor_WindowMat;    !- Outside Layer

CONSTRUCTION,
    exterior_wall_Construction,    !- Name
    exterior_wall_OpaqueMat;    !- Outside Layer

CONSTRUCTION,
    exterior_wall_WindowConst,    !- Name
    exterior_wall_WindowMat;    !- Outside Layer

CONSTRUCTION,
    flat_roof_Construction,    !- Name
    flat_roof_OpaqueMat;      !- Outside Layer

CONSTRUCTION,
    flat_roof_WindowConst,    !- Name
    flat_roof_WindowMat;      !- Outside Layer

CONSTRUCTION,
    inter_floor_Construction,    !- Name
    inter_floor_OpaqueMat;    !- Outside Layer

CONSTRUCTION,
    inter_floor_WindowConst,    !- Name
    inter_floor_WindowMat;    !- Outside Layer

CONSTRUCTION,
    interior_wall_Construction,    !- Name
    interior_wall_OpaqueMat;    !- Outside Layer

CONSTRUCTION,
    interior_wall_WindowConst,    !- Name
    interior_wall_WindowMat;    !- Outside Layer

CONSTRUCTION,
    windows_Construction,     !- Name
    windows_OpaqueMat;        !- Outside Layer

CONSTRUCTION,
    windows_WindowConst,      !- Name
    windows_WindowMat;        !- Outside Layer

CONSTRUCTION,
    doors_Construction,       !- Name
    doors_OpaqueMat;          !- Outside Layer

CONSTRUCTION,
    doors_WindowConst,        !- Name
    doors_WindowMat;          !- Outside Layer

GlobalGeometryRules,
    UpperLeftCorner,          !- Starting Vertex Position
    CounterClockWise,         !- Vertex Entry Direction
    Relative;                 !- Coordinate System

ZONE,
    Zone1_FrontPerimeter,     !- Name
    0,                        !- Direction of Relative North
    0,                        !- X Origin
    0,                        !- Y Origin
    0,                        !- Z Origin
    1,                        !- Type
    1,                        !- Multiplier
    autocalculate,            !- Ceiling Height
    autocalculate,            !- Volume
    autocalculate,            !- Floor Area
    ,                         !- Zone Inside Convection Algorithm
    ,                         !- Zone Outside Convection Algorithm
    Yes;                      !- Part of Total Floor Area

ZONE,
    Zone1_RightPerimeter,     !- Name
    0,                        !- Direction of Relative North
    0,                        !- X Origin
    0,                        !- Y Origin
    0,                        !- Z Origin
    1,                        !- Type
    1,                        !- Multiplier
    autocalculate,            !- Ceiling Height
    autocalculate,            !- Volume
    autocalculate,            !- Floor Area
    ,                         !- Zone Inside Convection Algorithm
    ,                         !- Zone Outside Convection Algorithm
    Yes;                      !- Part of Total Floor Area

ZONE,
    Zone1_RearPerimeter,      !- Name
    0,                        !- Direction of Relative North
    0,                        !- X Origin
    0,                        !- Y Origin
    0,                        !- Z Origin