!- Windows Line endings 

Version,
    23.2;                     !- Version Identifier

SimulationControl,
    Yes,                      !- Do Zone Sizing Calculation
    Yes,                      !- Do System Sizing Calculation
    Yes,                      !- Do Plant Sizing Calculation
    No,                       !- Run Simulation for Sizing Periods
    Yes,                      !- Run Simulation for Weather File Run Periods
    No,                       !- Do HVAC Sizing Simulation for Sizing Periods
    ;                         !- Maximum Number of HVAC Sizing Simulation Passes

BUILDING,
    Sample_Building_1,        !- Name
    135,                      !- North Axis
    Suburbs,                  !- Terrain
    0.04,                     !- Loads Convergence Tolerance Value
    0.4,                      !- Temperature Convergence Tolerance Value
    FullExterior,             !- Solar Distribution
    25,                       !- Maximum Number of Warmup Days
    1;                        !- Minimum Number of Warmup Days

Timestep,
    4;                        !- Number of Timesteps per Hour

Site:Location,
    Amsterdam_Netherlands,    !- Name
    52.37,                    !- Latitude
    4.89,                     !- Longitude
    1,                        !- Time Zone
    -2;                       !- Elevation

SizingPeriod:DesignDay,
    Netherlands Ann Htg 99.6% Condns DB,    !- Name
    1,                        !- Month
    21,                       !- Day of Month
    WinterDesignDay,          !- Day Type
    -5,                       !- Maximum DryBulb Temperature
    0,                        !- Daily DryBulb Temperature Range
    ,                         !- DryBulb Temperature Range Modifier Type
    ,                         !- DryBulb Temperature Range Modifier Day Schedule Name
    Wetbulb,                  !- Humidity Condition Type
    -5,                       !- Wetbulb or DewPoint at Maximum DryBulb
    ,                         !- Humidity Condition Day Schedule Name
    ,                         !- Humidity Ratio at Maximum DryBulb
    ,                         !- Enthalpy at Maximum DryBulb
    ,                         !- Daily WetBulb Temperature Range
    102000,                   !- Barometric Pressure
    4,                        !- Wind Speed
    270,                      !- Wind Direction
    No,                       !- Rain Indicator
    No,                       !- Snow Indicator
    No,                       !- Daylight Saving Time Indicator
    ASHRAEClearSky,           !- Solar Model Indicator
    ,                         !- Beam Solar Day Schedule Name
    ,                         !- Diffuse Solar Day Schedule Name
    ,                         !- ASHRAE Clear Sky Optical Depth for Beam Irradiance taub
    ,                         !- ASHRAE Clear Sky Optical Depth for Diffuse Irradiance taud
    0;                        !- Sky Clearness

SizingPeriod:DesignDay,
    Netherlands Ann Clg 1% Condns DB=>MWB,    !- Name
    7,                        !- Month
    21,                       !- Day of Month
    SummerDesignDay,          !- Day Type
    28,                       !- Maximum DryBulb Temperature
    10,                       !- Daily DryBulb Temperature Range
    ,                         !- DryBulb Temperature Range Modifier Type
    ,                         !- DryBulb Temperature Range Modifier Day Schedule Name
    Wetbulb,                  !- Humidity Condition Type
    17,                       !- Wetbulb or DewPoint at Maximum DryBulb
    ,                         !- Humidity Condition Day Schedule Name
    ,                         !- Humidity Ratio at Maximum DryBulb
    ,                         !- Enthalpy at Maximum DryBulb
    ,                         !- Daily WetBulb Temperature Range
    102000,                   !- Barometric Pressure
    3.5,                      !- Wind Speed
    90,                       !- Wind Direction
    No,                       !- Rain Indicator
    No,                       !- Snow Indicator
    No,                       !- Daylight Saving Time Indicator
    ASHRAEClearSky,           !- Solar Model Indicator
    ,                         !- Beam Solar Day Schedule Name
    ,                         !- Diffuse Solar Day Schedule Name
    ,                         !- ASHRAE Clear Sky Optical Depth for Beam Irradiance taub
    ,                         !- ASHRAE Clear Sky Optical Depth for Diffuse Irradiance taud
    1;                        !- Sky Clearness

RunPeriod,
    Run Period 1,             !- Name
    1,                        !- Begin Month
    1,                        !- Begin Day of Month
    ,                         !- Begin Year
    12,                       !- End Month
    31,                       !- End Day of Month
    ,                         !- End Year
    Tuesday,                  !- Day of Week for Start Day
    Yes,                      !- Use Weather File Holidays and Special Days
    Yes,                      !- Use Weather File Daylight Saving Period
    No,                       !- Apply Weekend Holiday Rule
    Yes,                      !- Use Weather File Rain Indicators
    Yes;                      !- Use Weather File Snow Indicators

SITE:GROUNDTEMPERATURE:BUILDINGSURFACE,
    2.6394267984578836,       !- January Ground Temperature
    3.5375161328340003,       !- February Ground Temperature
    4.550058636738239,        !- March Ground Temperature
    7.558026845372057,        !- April Ground Temperature
    14.472942428328025,       !- May Ground Temperature
    16.176699487422912,       !- June Ground Temperature
    18.78435913540969,        !- July Ground Temperature
    17.673877665258832,       !- August Ground Temperature
    14.84384363937054,        !- September Ground Temperature
    9.059594438876141,        !- October Ground Temperature
    6.65591392441081,         !- November Ground Temperature
    4.0107105762067246;       !- December Ground Temperature

SCHEDULETYPELIMITS,
    Temperature,              !- Name
    -100,                     !- Lower Limit Value
    200,                      !- Upper Limit Value
    CONTINUOUS,               !- Numeric Type
    Dimensionless;            !- Unit Type

SCHEDULETYPELIMITS,
    ControlType,              !- Name
    0,                        !- Lower Limit Value
    4,                        !- Upper Limit Value
    DISCRETE,                 !- Numeric Type
    Dimensionless;            !- Unit Type

Schedule:Compact,
    ALWAYS22C,                !- Name
    Temperature,              !- Schedule Type Limits Name
    Through: 12/31,           !- Field 1
    For: AllDays,             !- Field 2
    Until: 24:00,             !- Field 3
    22.0;                     !- Field 4

SCHEDULE:COMPACT,
    LightsSchedule,           !- Name
    Fraction,                 !- Schedule Type Limits Name
    Through: 12/31,           !- Field 1
    For: WeekDays,            !- Field 2
    Until: 24:00,0.50,        !- Field 3
    For: Saturday,            !- Field 4
    Until: 24:00,0.50,        !- Field 5
    For: Sunday,              !- Field 6
    Until: 24:00,0.50;        !- Field 7

SCHEDULE:COMPACT,
    ParasiticSchedule,        !- Name
    Fraction,                 !- Schedule Type Limits Name
    Through: 12/31,           !- Field 1
    For: AllDays,             !- Field 2
    Until: 24:00,1.0;         !- Field 3

SCHEDULE:COMPACT,
    MyDHW_1_UseFraction,      !- Name
    Fraction,                 !- Schedule Type Limits Name
    Through: 12/31,           !- Field 1
    For: AllDays,             !- Field 2
    Until: 06:00, 0.0,        !- Field 3
    Until: 08:00, 0.62,       !- Field 4
    Until: 10:00, 0.98,       !- Field 5
    Until: 17:00, 0.20,       !- Field 6
    Until: 21:00, 0.69,       !- Field 7
    Until: 24:00, 0.62;       !- Field 8

SCHEDULE:COMPACT,
    MyDHW_1_Setpoint,         !- Name
    Temperature,              !- Schedule Type Limits Name
    Through: 12/31,           !- Field 1
    For: AllDays,             !- Field 2
    Until: 24:00, 59.472942428328025;    !- Field 3

SCHEDULE:COMPACT,
    ZONE CONTROL TYPE SCHEDULE,    !- Name
    ControlType,              !- Schedule Type Limits Name
    Through: 12/31,           !- Field 1
    For: AllDays,             !- Field 2
    Until: 24:00,4;           !- Field 3

SCHEDULE:COMPACT,
    ZONE HEATING SETPOINTS,    !- Name
    Temperature,              !- Schedule Type Limits Name
    Through: 12/31,           !- Field 1
    For: AllDays,             !- Field 2
    Until: 07:00,15.05,       !- Field 3
    Until: 19:00,21.28,       !- Field 4
    Until: 24:00,15.05;       !- Field 5

SCHEDULE:COMPACT,
    ZONE COOLING SETPOINTS,    !- Name
    Temperature,              !- Schedule Type Limits Name
    Through: 12/31,           !- Field 1
    For: AllDays,             !- Field 2
    Until: 07:00,25.45,       !- Field 3
    Until: 19:00,23.55,       !- Field 4
    Until: 24:00,25.45;       !- Field 5

SCHEDULE:COMPACT,
    VentSched_DayNight,       !- Name
    Fraction,                 !- Schedule Type Limits Name
    Through: 12/31,           !- Field 1
    For: AllDays,             !- Field 2
    Until: 06:00,0.5,         !- Field 3
    Until: 22:00,1.0,         !- Field 4
    Until: 24:00,0.5;         !- Field 5

SCHEDULE:COMPACT,
    WorkHoursSched,           !- Name
    Fraction,                 !- Schedule Type Limits Name
    Through: 12/31,           !- Field 1
    For: Weekdays,            !- Field 2
    Until: 09:00,0.2,         !- Field 3
    Until: 17:00,1.0,         !- Field 4
    Until: 24:00,0.2,         !- Field 5
    For: Saturday Sunday Holiday,    !- Field 6
    Until: 24:00,0.2;         !- Field 7

SCHEDULE:CONSTANT,
    AlwaysOnSched,            !- Name
    Fraction,                 !- Schedule Type Limits Name
    1;                        !- Hourly Value

MATERIAL,
    DoorPanel_Range,          !- Name
    MediumRough,              !- Roughness
    0.1427511830744934,       !- Thickness
    1.4825087955107357,       !- Conductivity
    622.3210738148823,        !- Density
    2347.2942428328024,       !- Specific Heat
    0.9,                      !- Thermal Absorptance
    0.7,                      !- Solar Absorptance
    0.7;                      !- Visible Absorptance

MATERIAL,
    ground_floor_OpaqueMat,    !- Name
    MediumRough,              !- Roughness
    1.005307e-01,             !- Thickness
    2.872306e-02,             !- Conductivity
    2229.976887555905,        !- Density
    877.2470740301609,        !- Specific Heat
    0.9,                      !- Thermal Absorptance
    0.7,                      !- Solar Absorptance
    0.7;                      !- Visible Absorptance

MATERIAL,
    exterior_wall_OpaqueMat,    !- Name
    MediumRough,              !- Roughness
    1.965548e-01,             !- Thickness
    5.615851e-02,             !- Conductivity
    2283.6594545112625,       !- Density
    859.2745843380148,        !- Specific Heat
    0.9,                      !- Thermal Absorptance
    0.7,                      !- Solar Absorptance
    0.7;                      !- Visible Absorptance

MATERIAL,
    inter_floor_OpaqueMat,    !- Name
    MediumSmooth,             !- Roughness
    0.1268369482695464,       !- Thickness
    0.0634184741347732,       !- Conductivity
    1815.9583953847255,       !- Density
    823.279088636103,         !- Specific Heat
    0.9,                      !- Thermal Absorptance
    0.7,                      !- Solar Absorptance
    0.7;                      !- Visible Absorptance

MATERIAL,
    interior_wall_OpaqueMat,    !- Name
    MediumSmooth,             !- Roughness
    0.1468327293856247,       !- Thickness
    9.788849e-02,             !- Conductivity
    821.8262011333976,        !- Density
    834.2277296396194,        !- Specific Heat
    0.9,                      !- Thermal Absorptance
    0.7,                      !- Solar Absorptance
    0.7;                      !- Visible Absorptance

MATERIAL,
    windows_OpaqueMat,        !- Name
    MediumRough,              !- Roughness
    2.327137e-01,             !- Thickness
    0.6748697625405492,       !- Conductivity
    622.9048071964104,        !- Density
    2206.4200487808075,       !- Specific Heat
    0.9,                      !- Thermal Absorptance
    0.7,                      !- Solar Absorptance
    0.7;                      !- Visible Absorptance

MATERIAL,
    doors_OpaqueMat,          !- Name
    MediumRough,              !- Roughness
    1.835195e-01,             !- Thickness
    0.6423182819083558,       !- Conductivity
    645.8851852587399,        !- Density
    2252.9760332996107,       !- Specific Heat
    0.9,                      !- Thermal Absorptance
    0.7,                      !- Solar Absorptance
    0.7;                      !- Visible Absorptance

MATERIAL:NOMASS,
    flat_roof_OpaqueMat,      !- Name
    MediumRough,              !- Roughness
    3.5,                      !- Thermal Resistance
    0.9,                      !- Thermal Absorptance
    0.7,                      !- Solar Absorptance
    0.7;                      !- Visible Absorptance

WINDOWMATERIAL:GLAZING,
    Glazing_Clear_3mm,        !- Name
    SpectralAverage,          !- Optical Data Type
    ,                         !- Window Glass Spectral Data Set Name
    0.003,                    !- Thickness
    0.7735339897484582,       !- Solar Transmittance at Normal Incidence
    7.892180e-02,             !- Front Side Solar Reflectance at Normal Incidence
    7.086939e-02,             !- Back Side Solar Reflectance at Normal Incidence
    0.8684384363937054,       !- Visible Transmittance at Normal Incidence
    6.029797e-02,             !- Front Side Visible Reflectance at Normal Incidence
    6.218638e-02,             !- Back Side Visible Reflectance at Normal Incidence
    0,                        !- Infrared Transmittance at Normal Incidence
    0.84,                     !- Front Side Infrared Hemispherical Emissivity
    0.84,                     !- Back Side Infrared Hemispherical Emissivity
    1.0005355288103361,       !- Conductivity
    1,                        !- Dirt Correction Factor for Solar and Visible Transmittance
    No,                       !- Solar Diffusing
    72000000000,              !- Youngs modulus
    0.22;                     !- Poissons ratio

WINDOWMATERIAL:GLAZING,
    ground_floor_WindowMat,    !- Name
    SpectralAverage,          !- Optical Data Type
    ,                         !- Window Glass Spectral Data Set Name
    0.003,                    !- Thickness
    0.7644088124408139,       !- Solar Transmittance at Normal Incidence
    7.589266e-02,             !- Front Side Solar Reflectance at Normal Incidence
    7.809430e-02,             !- Back Side Solar Reflectance at Normal Incidence
    0.8601299751935612,       !- Visible Transmittance at Normal Incidence
    6.805819e-02,             !- Front Side Visible Reflectance at Normal Incidence
    6.698139e-02,             !- Back Side Visible Reflectance at Normal Incidence
    0,                        !- Infrared Transmittance at Normal Incidence
    0.84,                     !- Front Side Infrared Hemispherical Emissivity
    0.84,                     !- Back Side Infrared Hemispherical Emissivity
    8.400000e-04,             !- Conductivity
    1,                        !- Dirt Correction Factor for Solar and Visible Transmittance
    No,                       !- Solar Diffusing
    72000000000,              !- Youngs modulus
    0.22;                     !- Poissons ratio

WINDOWMATERIAL:GLAZING,
    exterior_wall_WindowMat,    !- Name
    SpectralAverage,          !- Optical Data Type
    ,                         !- Window Glass Spectral Data Set Name
    0.003,                    !- Thickness
    0.7619343275366693,       !- Solar Transmittance at Normal Incidence
    0.0784749436634746,       !- Front Side Solar Reflectance at Normal Incidence
    7.603726e-02,             !- Back Side Solar Reflectance at Normal Incidence
    0.8761425654654876,       !- Visible Transmittance at Normal Incidence
    6.729732e-02,             !- Front Side Visible Reflectance at Normal Incidence
    6.536228e-02,             !- Back Side Visible Reflectance at Normal Incidence
    0,                        !- Infrared Transmittance at Normal Incidence
    0.84,                     !- Front Side Infrared Hemispherical Emissivity
    0.84,                     !- Back Side Infrared Hemispherical Emissivity
    0.00096,                  !- Conductivity
    1,                        !- Dirt Correction Factor for Solar and Visible Transmittance
    No,                       !- Solar Diffusing
    72000000000,              !- Youngs modulus
    0.22;                     !- Poissons ratio

WINDOWMATERIAL:GLAZING,
    flat_roof_WindowMat,      !- Name
    SpectralAverage,          !- Optical Data Type
    ,                         !- Window Glass Spectral Data Set Name
    0.003,                    !- Thickness
    0.7710408126254645,       !- Solar Transmittance at Normal Incidence
    7.829405e-02,             !- Front Side Solar Reflectance at Normal Incidence
    7.618520e-02,             !- Back Side Solar Reflectance at Normal Incidence
    0.8772341380062155,       !- Visible Transmittance at Normal Incidence
    6.577352e-02,             !- Front Side Visible Reflectance at Normal Incidence
    6.704572e-02,             !- Back Side Visible Reflectance at Normal Incidence
    0,                        !- Infrared Transmittance at Normal Incidence
    0.84,                     !- Front Side Infrared Hemispherical Emissivity
    0.84,                     !- Back Side Infrared Hemispherical Emissivity
    0.00096,                  !- Conductivity
    1,                        !- Dirt Correction Factor for Solar and Visible Transmittance
    No,                       !- Solar Diffusing
    72000000000,              !- Youngs modulus
    0.22;                     !- Poissons ratio

WINDOWMATERIAL:GLAZING,
    inter_floor_WindowMat,    !- Name
    SpectralAverage,          !- Optical Data Type
    ,                         !- Window Glass Spectral Data Set Name
    0.003,                    !- Thickness
    0.7620200285881946,       !- Solar Transmittance at Normal Incidence
    7.277974e-02,             !- Front Side Solar Reflectance at Normal Incidence
    7.635684e-02,             !- Back Side Solar Reflectance at Normal Incidence
    0.8672966435794017,       !- Visible Transmittance at Normal Incidence
    6.370181e-02,             !- Front Side Visible Reflectance at Normal Incidence
    6.209507e-02,             !- Back Side Visible Reflectance at Normal Incidence
    0,                        !- Infrared Transmittance at Normal Incidence
    0.84,                     !- Front Side Infrared Hemispherical Emissivity
    0.84,                     !- Back Side Infrared Hemispherical Emissivity
    0.0015,                   !- Conductivity
    1,                        !- Dirt Correction Factor for Solar and Visible Transmittance
    No,                       !- Solar Diffusing
    72000000000,              !- Youngs modulus
    0.22;                     !- Poissons ratio

WINDOWMATERIAL:GLAZING,
    interior_wall_WindowMat,    !- Name
    SpectralAverage,          !- Optical Data Type
    ,                         !- Window Glass Spectral Data Set Name
    0.003,                    !- Thickness
    0.7745825359590071,       !- Solar Transmittance at Normal Incidence
    7.163402e-02,             !- Front Side Solar Reflectance at Normal Incidence
    7.379455e-02,             !- Back Side Solar Reflectance at Normal Incidence
    0.8797904670127319,       !- Visible Transmittance at Normal Incidence
    6.640000e-02,             !- Front Side Visible Reflectance at Normal Incidence
    6.556950e-02,             !- Back Side Visible Reflectance at Normal Incidence
    0,                        !- Infrared Transmittance at Normal Incidence
    0.84,                     !- Front Side Infrared Hemispherical Emissivity
    0.84,                     !- Back Side Infrared Hemispherical Emissivity
    0.00201,                  !- Conductivity
    1,                        !- Dirt Correction Factor for Solar and Visible Transmittance
    No,                       !- Solar Diffusing
    72000000000,              !- Youngs modulus
    0.22;                     !- Poissons ratio

WINDOWMATERIAL:GLAZING,
    windows_WindowMat,        !- Name
    SpectralAverage,          !- Optical Data Type
    ,                         !- Window Glass Spectral Data Set Name
    0.003,                    !- Thickness
    0.7663090609611817,       !- Solar Transmittance at Normal Incidence
    7.267741e-02,             !- Front Side Solar Reflectance at Normal Incidence
    7.210983e-02,             !- Back Side Solar Reflectance at Normal Incidence
    0.8788581942867011,       !- Visible Transmittance at Normal Incidence
    0.0687636762647267,       !- Front Side Visible Reflectance at Normal Incidence
    6.314678e-02,             !- Back Side Visible Reflectance at Normal Incidence
    0,                        !- Infrared Transmittance at Normal Incidence
    0.84,                     !- Front Side Infrared Hemispherical Emissivity
    0.84,                     !- Back Side Infrared Hemispherical Emissivity
    0.0087,                   !- Conductivity
    1,                        !- Dirt Correction Factor for Solar and Visible Transmittance
    No,                       !- Solar Diffusing
    72000000000,              !- Youngs modulus
    0.22;                     !- Poissons ratio

WINDOWMATERIAL:GLAZING,
    doors_WindowMat,          !- Name
    SpectralAverage,          !- Optical Data Type
    ,                         !- Window Glass Spectral Data Set Name
    0.003,                    !- Thickness
    0.7649325501538797,       !- Solar Transmittance at Normal Incidence
    7.561368e-02,             !- Front Side Solar Reflectance at Normal Incidence
    7.262742e-02,             !- Back Side Solar Reflectance at Normal Incidence
    0.8716917198044708,       !- Visible Transmittance at Normal Incidence
    6.897823e-02,             !- Front Side Visible Reflectance at Normal Incidence
    6.399401e-02,             !- Back Side Visible Reflectance at Normal Incidence
    0,                        !- Infrared Transmittance at Normal Incidence
    0.84,                     !- Front Side Infrared Hemispherical Emissivity
    0.84,                     !- Back Side Infrared Hemispherical Emissivity
    0.0105,                   !- Conductivity
    1,                        !- Dirt Correction Factor for Solar and Visible Transmittance
    No,                       !- Solar Diffusing
    72000000000,              !- Youngs modulus
    0.22;                     !- Poissons ratio

CONSTRUCTION,
    CEILING1C,                !- Name
    DoorPanel_Range;          !- Outside Layer

CONSTRUCTION,
    Ext_Walls1C,              !- Name
    DoorPanel_Range;          !- Outside Layer

CONSTRUCTION,
    Int_Walls1C,              !- Name
    DoorPanel_Range;          !- Outside Layer

CONSTRUCTION,
    Roof1C,                   !- Name
    DoorPanel_Range;          !- Outside Layer

CONSTRUCTION,
    GroundFloor1C,            !- Name
    DoorPanel_Range;          !- Outside Layer

CONSTRUCTION,
    IntFloor1C,               !- Name
    DoorPanel_Range;          !- Outside Layer

CONSTRUCTION,
    WINDOW1C,                 !- Name
    Glazing_Clear_3mm;        !- Outside Layer

CONSTRUCTION,
    ground_floor_Construction,    !- Name
    ground_floor_OpaqueMat;    !- Outside Layer

CONSTRUCTION,
    ground_floor_WindowConst,    !- Name
    ground_floor_WindowMat;    !- Outside Layer

CONSTRUCTION,
    exterior_wall_Construction,    !- Name
    exterior_wall_OpaqueMat;    !- Outside Layer

CONSTRUCTION,
    exterior_wall_WindowConst,    !- Name
    exterior_wall_WindowMat;    !- Outside Layer

CONSTRUCTION,
    flat_roof_Construction,    !- Name
    flat_roof_OpaqueMat;      !- Outside Layer

CONSTRUCTION,
    flat_roof_WindowConst,    !- Name
    flat_roof_WindowMat;      !- Outside Layer

CONSTRUCTION,
    inter_floor_Construction,    !- Name
    inter_floor_OpaqueMat;    !- Outside Layer

CONSTRUCTION,
    inter_floor_WindowConst,    !- Name
    inter_floor_WindowMat;    !- Outside Layer

CONSTRUCTION,
    interior_wall_Construction,    !- Name
    interior_wall_OpaqueMat;    !- Outside Layer

CONSTRUCTION,
    interior_wall_WindowConst,    !- Name
    interior_wall_WindowMat;    !- Outside Layer

CONSTRUCTION,
    windows_Construction,     !- Name
    windows_OpaqueMat;        !- Outside Layer

CONSTRUCTION,
    windows_WindowConst,      !- Name
    windows_WindowMat;        !- Outside Layer

CONSTRUCTION,
    doors_Construction,       !- Name
    doors_OpaqueMat;          !- Outside Layer

CONSTRUCTION,
    doors_WindowConst,        !- Name
    doors_WindowMat;          !- Outside Layer

GlobalGeometryRules,
    UpperLeftCorner,          !- Starting Vertex Position
    CounterClockWise,         !- Vertex Entry Direction
    Relative;                 !- Coordinate System

ZONE,
    Zone1_FrontPerimeter,     !- Name
    0,                        !- Direction of Relative North
    0,                        !- X Origin
    0,                        !- Y Origin
    0,                        !- Z Origin
    1,                        !- Type
    1,                        !- Multiplier
    autocalculate,            !- Ceiling Height
    autocalculate,            !- Volume
    autocalculate,            !- Floor Area
    ,                         !- Zone Inside Convection Algorithm
    ,                         !- Zone Outside Convection Algorithm
    Yes;                      !- Part of Total Floor Area

ZONE,
    Zone1_RightPerimeter,     !- Name
    0,                        !- Direction of Relative North
    0,                        !- X Origin
    0,                        !- Y Origin
    0,                        !- Z Origin
    1,                        !- Type
    1,                        !- Multiplier
    autocalculate,            !- Ceiling Height
    autocalculate,            !- Volume
    autocalculate,            !- Floor Area
    ,                         !- Zone Inside Convection Algorithm
    ,                         !- Zone Outside Convection Algorithm
    Yes;                      !- Part of Total Floor Area

ZONE,
    Zone1_RearPerimeter,      !- Name
    0,                        !- Direction of Relative North
    0,                        !- X Origin
    0,                        !- Y Origin
    0,                        !- Z Origin
    1,                        !- Type
    1,                        !- Multiplier
    autocalculate,            !- Ceiling Height
    autocalculate,            !- Volume
    autocalculate,            !- Floor Area
    ,                         !- Zone Inside Convection Algorithm
    ,                         !- Zone Outside Convection Algorithm
    Yes;                      !- Part of Total Floor Area

ZONE,
    Zone1_LeftPerimeter,      !- Name
    0,                        !- Direction of Relative North
    0,                        !- X Origin
    0,                        !- Y Origin
    0,                        !- Z Origin
    1,                        !- Type
    1,                        !- Multiplier
    autocalculate,            !- Ceiling Height
    autocalculate,            !- Volume
    autocalculate,            !- Floor Area
    ,                         !- Zone Inside Convection Algorithm
    ,                         !- Zone Outside Convection Algorithm
    Yes;                      !- Part of Total Floor Area

ZONE,
    Zone1_Core,               !- Name
    0,                        !- Direction of Relative North
    0,                        !- X Origin
    0,                        !- Y Origin
    0,                        !- Z Origin
    1,                        !- Type
    1,                        !- Multiplier
    autocalculate,            !- Ceiling Height
    autocalculate,            !- Volume
    autocalculate,            !- Floor Area
    ,                         !- Zone Inside Convection Algorithm
    ,                         !- Zone Outside Convection Algorithm
    Yes;                      !- Part of Total Floor Area

ZONE,
    Zone2_FrontPerimeter,     !- Name
    0,                        !- Direction of Relative North
    0,                        !- X Origin
    0,                        !- Y Origin
    0,                        !- Z Origin
    1,                        !- Type
    1,                        !- Multiplier
    autocalculate,            !- Ceiling Height
    autocalculate,            !- Volume
    autocalculate,            !- Floor Area
    ,                         !- Zone Inside Convection Algorithm
    ,                         !- Zone Outside Convection Algorithm
    Yes;                      !- Part of Total Floor Area

ZONE,
    Zone2_RightPerimeter,     !- Name
    0,                        !- Direction of Relative North
    0,                        !- X Origin
    0,                        !- Y Origin
    0,                        !- Z Origin
    1,                        !- Type
    1,                        !- Multiplier
    autocalculate,            !- Ceiling Height
    autocalculate,            !- Volume
    autocalculate,            !- Floor Area
    ,                         !- Zone Inside Convection Algorithm
    ,                         !- Zone Outside Convection Algorithm
    Yes;                      !- Part of Total Floor Area

ZONE,
    Zone2_RearPerimeter,      !- Name
    0,                        !- Direction of Relative North
    0,                        !- X Origin
    0,                        !- Y Origin
    0,                        !- Z Origin